[TITLE]
;;Project Title/Notes

[OPTIONS]
;;Option             Value
FLOW_UNITS           CMS
INFILTRATION         HORTON
FLOW_ROUTING         DYNWAVE
LINK_OFFSETS         DEPTH
MIN_SLOPE            0
ALLOW_PONDING        YES
SKIP_STEADY_STATE    NO

START_DATE           05/23/2012
START_TIME           00:00:00
REPORT_START_DATE    05/23/2012
REPORT_START_TIME    00:00:00
END_DATE             05/30/2012
END_TIME             23:50:00
SWEEP_START          01/01
SWEEP_END            12/31
DRY_DAYS             0.000000
REPORT_STEP          00:10:00
WET_STEP             00:05:00
DRY_STEP             00:05:00
ROUTING_STEP         0:00:10 
RULE_STEP            00:00:00

INERTIAL_DAMPING     NONE
NORMAL_FLOW_LIMITED  SLOPE
FORCE_MAIN_EQUATION  H-W
VARIABLE_STEP        0.75
LENGTHENING_STEP     0
MIN_SURFAREA         0
MAX_TRIALS           4
HEAD_TOLERANCE       0.005000
SYS_FLOW_TOL         5
LAT_FLOW_TOL         5
MINIMUM_STEP         0.5
THREADS              1

[EVAPORATION]
;;Data Source    Parameters
;;-------------- ----------------
CONSTANT         0.0
DRY_ONLY         NO

[RAINGAGES]
;;Name           Format    Interval SCF      Source    
;;-------------- --------- ------ ------ ----------
; New Raingage
RAINGAGE-1       VOLUME    0.166700 1.000000 TIMESERIES TIMESERI-1      

[SNOWPACKS]
;;Name           Surface    Parameters
;;-------------- ---------- ----------
SNOWPACK-1       PLOWABLE   0.001000   0.001000   32.000000  0.100000   0.000000   0.000000   0.000000  
SNOWPACK-1       IMPERVIOUS 0.001000   0.001000   32.000000  0.100000   0.000000   0.000000   0.000000  
SNOWPACK-1       PERVIOUS   0.001000   0.001000   32.000000  0.100000   0.000000   0.000000   0.000000  
SNOWPACK-1       REMOVAL    0.000000   0.000000   0.000000   0.000000   0.000000   0.000000   

[JUNCTIONS]
;;Name           Elevation  MaxDepth   InitDepth  SurDepth   Aponded   
;;-------------- ---------- ---------- ---------- ---------- ----------
; Existing
JCT-12           421.200000 3.500000   0.001000   3.500000   0.000000  
; New Junction
JCT-14           421.200000 3.500000   0.001000   3.500000   0.000000  

[OUTFALLS]
;;Name           Elevation  Type       Stage Data       Gated    Route To        
;;-------------- ---------- ---------- ---------------- -------- ----------------
; BackCreek
CREEK            420.380000 TIMESERIES TSBACKCREEK      NO                       
; BackCreek2
CREEK2           420.380000 TIMESERIES TSBACKCREEK      NO                       

[STORAGE]
;;Name           Elev.    MaxDepth   InitDepth  Shape      Curve Name/Params            N/A      Fevap    Psi      Ksat     IMD     
;;-------------- -------- ---------- ----------- ---------- ---------------------------- -------- --------          -------- --------
; Dam2
DAM2             421.200000 3.500000   0.000000   TABULAR    DAM2                         0.000000 0.000000

[CONDUITS]
;;Name           From Node        To Node          Length     Roughness  InOffset   OutOffset  InitFlow   MaxFlow   
;;-------------- ---------------- ---------------- ---------- ---------- ---------- ---------- ---------- ----------
; New Conduit
CDT-15           JCT-14           CREEK2           101.000000 0.010000   0.000000   0.000000   0.000000   0.000000  
; Existing300
EXISTING300      JCT-12           CREEK            101.000000 0.010000   0.000000   0.000000   0.000000   0.000000  

[ORIFICES]
;;Name           From Node        To Node          Type         Offset     Qcoeff     Gated    CloseTime 
;;-------------- ---------------- ---------------- ------------ ---------- ---------- -------- ----------
; Existing
ORI-11           DAM2             JCT-12           SIDE         0.000000   0.650000   NO       0.010000  
; New Orifice
ORI-13           DAM2             JCT-14           SIDE         0.000000   0.650000   NO       0.010000  

[XSECTIONS]
;;Link           Shape        Geom1            Geom2      Geom3      Geom4      Barrels    Culvert   
;;-------------- ------------ ---------------- ---------- ---------- ---------- ---------- ----------
CDT-15           CIRCULAR     0.905000         0.000000   0.000000   0.000000   1          0         
EXISTING300      CIRCULAR     0.375000         0.000000   0.000000   0.000000   1          0         
ORI-11           CIRCULAR     0.375000         0          0          0
ORI-13           CIRCULAR     0.905000         0          0          0

[LOSSES]
;;Link           Kentry     Kexit      Kavg       Flap Gate  Seepage   
;;-------------- ---------- ---------- ---------- ---------- ----------
CDT-15           0.800000   1.000000   0.000000   NO         0.000000  
EXISTING300      0.800000   1.000000   0.100000   NO         0.000000  

[CONTROLS]



[INFLOWS]
;;Node           Constituent      Time Series      Type     Mfactor  Sfactor  Baseline Pattern
;;-------------- ---------------- ---------------- -------- -------- -------- -------- --------
DAM2             FLOW             ""               FLOW     1.0      1.000000         

[DWF]
;;Node           Constituent      Baseline   Patterns  
;;-------------- ---------------- ---------- ----------
DAM2             FLOW             0.578704   "CATCHMENT" "12HOURS"

[HYDROGRAPHS]
;;Hydrograph     Rain Gage/Month  Response R        T        K        Dmax     Drecov   Dinit   
;;-------------- ---------------- -------- -------- -------- -------- -------- -------- --------
HYDROGRH-1       RAINGAGE-1      
HYDROGRH-1       All              Short    0.010000 1.000000 2.000000 0.100000 0.100000 0.050000
HYDROGRH-1       All              Medium   0.010000 3.000000 2.000000 0.100000 0.100000 0.050000
HYDROGRH-1       All              Long     0.010000 10.000000 2.000000 0.100000 0.100000 0.050000


[CURVES]
;;Name           Type       X-Value    Y-Value   
;;-------------- ---------- ---------- ----------
; Dam2
DAM2             STORAGE    0.100000   25523.524000
DAM2                        0.200000   25670.656000
DAM2                        0.300000   25820.397000
DAM2                        0.400000   25972.746000
DAM2                        0.500000   26127.703000
DAM2                        0.600000   26285.268000
DAM2                        0.700000   26445.441000
DAM2                        0.800000   26608.222000
DAM2                        0.900000   26773.612000
DAM2                        1.000000   26941.610000
DAM2                        1.100000   27112.216000
DAM2                        1.200000   27285.430000
DAM2                        1.300000   27461.253000
DAM2                        1.400000   27639.684000
DAM2                        1.500000   27820.723000
DAM2                        1.600000   28004.370000
DAM2                        1.700000   28190.625000
DAM2                        1.800000   28379.488000
DAM2                        1.900000   28570.960000
DAM2                        2.000000   28765.040000
DAM2                        2.100000   28961.728000
DAM2                        2.200000   29161.024000
DAM2                        2.300000   29362.929000
DAM2                        2.400000   29567.442000
DAM2                        2.500000   29774.563000
DAM2                        2.600000   29984.292000
DAM2                        2.700000   30196.629000
DAM2                        2.800000   30411.574000
DAM2                        2.900000   30629.128000
DAM2                        3.000000   30849.290000
DAM2                        3.100000   31072.060000
DAM2                        3.200000   31297.438000
DAM2                        3.300000   31525.425000
DAM2                        3.400000   31756.020000
DAM2                        3.500000   31989.223000
;
; BackCreek
CURVE-5          TIDAL      0.167000   0.000000  
CURVE-5                     0.333000   0.000000  
CURVE-5                     0.500000   0.000000  
CURVE-5                     0.667000   0.000000  
CURVE-5                     0.833000   0.000000  
CURVE-5                     1.000000   0.000000  
CURVE-5                     1.167000   0.000000  
CURVE-5                     1.333000   0.000000  
CURVE-5                     1.500000   0.000000  
CURVE-5                     1.667000   0.000000  
CURVE-5                     1.833000   0.000000  
CURVE-5                     2.000000   0.000000  
CURVE-5                     2.167000   0.000000  
CURVE-5                     2.333000   0.000000  
CURVE-5                     2.500000   0.000000  
CURVE-5                     2.667000   0.000000  
CURVE-5                     2.833000   0.000000  
CURVE-5                     3.000000   0.000000  
CURVE-5                     3.167000   0.000000  
CURVE-5                     3.333000   0.000000  
CURVE-5                     3.500000   0.000000  
CURVE-5                     3.667000   0.000000  
CURVE-5                     3.833000   0.000000  
CURVE-5                     4.000000   0.000000  
CURVE-5                     4.167000   0.000000  
CURVE-5                     4.333000   0.000000  
CURVE-5                     4.500000   0.000000  
CURVE-5                     4.667000   0.000000  
CURVE-5                     4.833000   0.000000  
CURVE-5                     5.000000   0.000000  
CURVE-5                     5.167000   0.000000  
CURVE-5                     5.333000   0.000000  
CURVE-5                     5.500000   0.000000  
CURVE-5                     5.667000   0.000000  
CURVE-5                     5.833000   0.000000  
CURVE-5                     6.000000   0.000000  
CURVE-5                     6.167000   0.000000  
CURVE-5                     6.333000   0.000000  
CURVE-5                     6.500000   0.000000  
CURVE-5                     6.667000   0.000000  
CURVE-5                     6.833000   0.000000  
CURVE-5                     7.000000   0.000000  
CURVE-5                     7.167000   0.000000  
CURVE-5                     7.333000   0.000000  
CURVE-5                     7.500000   0.000000  
CURVE-5                     7.667000   0.000000  
CURVE-5                     7.833000   0.000000  
CURVE-5                     8.000000   0.000000  
CURVE-5                     8.167000   0.000000  
CURVE-5                     8.333000   0.000000  
CURVE-5                     8.500000   0.000000  
CURVE-5                     8.667000   0.000000  
CURVE-5                     8.833000   0.000000  
CURVE-5                     9.000000   0.000000  
CURVE-5                     9.167000   0.000000  
CURVE-5                     9.333000   0.000000  
CURVE-5                     9.500000   0.000000  
CURVE-5                     9.667000   0.000000  
CURVE-5                     9.833000   0.000000  
CURVE-5                     10.000000  0.000000  
CURVE-5                     10.167000  0.000000  
CURVE-5                     10.333000  0.000000  
CURVE-5                     10.500000  0.000000  
CURVE-5                     10.667000  0.000000  
CURVE-5                     10.833000  0.000000  
CURVE-5                     11.000000  0.000000  
CURVE-5                     11.167000  0.000000  
CURVE-5                     11.333000  0.000000  
CURVE-5                     11.500000  0.000000  
CURVE-5                     11.667000  0.000000  
CURVE-5                     11.833000  0.000000  
CURVE-5                     12.000000  0.000000  
CURVE-5                     12.167000  0.000000  
CURVE-5                     12.333000  0.000000  
CURVE-5                     12.500000  0.000000  
CURVE-5                     12.667000  0.000000  
CURVE-5                     12.833000  0.000000  
CURVE-5                     13.000000  0.000000  
CURVE-5                     13.167000  0.000000  
CURVE-5                     13.333000  0.000000  
CURVE-5                     13.500000  0.000000  
CURVE-5                     13.667000  0.000000  
CURVE-5                     13.833000  0.000000  
CURVE-5                     14.000000  0.000000  
CURVE-5                     14.167000  0.000000  
CURVE-5                     14.333000  0.000000  
CURVE-5                     14.500000  0.000000  
CURVE-5                     14.667000  0.000000  
CURVE-5                     14.833000  0.000000  
CURVE-5                     15.000000  0.000000  
CURVE-5                     15.167000  0.000000  
CURVE-5                     15.333000  0.000000  
CURVE-5                     15.500000  0.000000  
CURVE-5                     15.667000  0.000000  
CURVE-5                     15.833000  0.000000  
CURVE-5                     16.000000  0.000000  
CURVE-5                     16.167000  0.000000  
CURVE-5                     16.333000  0.000000  
CURVE-5                     16.500000  0.000000  
CURVE-5                     16.667000  0.000000  
CURVE-5                     16.833000  0.000000  
CURVE-5                     17.000000  0.000000  
CURVE-5                     17.167000  0.000000  
CURVE-5                     17.333000  0.000000  
CURVE-5                     17.500000  0.000000  
CURVE-5                     17.667000  0.000000  
CURVE-5                     17.833000  0.000000  
CURVE-5                     18.000000  0.000000  
CURVE-5                     18.167000  0.000000  
CURVE-5                     18.333000  0.000000  
CURVE-5                     18.500000  0.000000  
CURVE-5                     18.667000  0.000000  
CURVE-5                     18.833000  0.000000  
CURVE-5                     19.000000  0.000000  
CURVE-5                     19.167000  0.000000  
CURVE-5                     19.333000  0.000000  
CURVE-5                     19.500000  0.000000  
CURVE-5                     19.667000  0.000000  
CURVE-5                     19.833000  0.000000  
CURVE-5                     20.000000  0.000000  
CURVE-5                     20.167000  0.000000  
CURVE-5                     20.333000  0.000000  
CURVE-5                     20.500000  0.000000  
CURVE-5                     20.667000  0.000000  
CURVE-5                     20.833000  0.000000  
CURVE-5                     21.000000  0.000000  
CURVE-5                     21.167000  0.000000  
CURVE-5                     21.333000  0.000000  
CURVE-5                     21.500000  0.000000  
CURVE-5                     21.667000  0.000000  
CURVE-5                     21.833000  0.000000  
CURVE-5                     22.000000  0.000000  
CURVE-5                     22.167000  0.000000  
CURVE-5                     22.333000  0.000000  
CURVE-5                     22.500000  0.000000  
CURVE-5                     22.667000  0.000000  
CURVE-5                     22.833000  0.000000  
CURVE-5                     23.000000  0.000000  
CURVE-5                     23.167000  0.000000  
CURVE-5                     23.333000  0.000000  
CURVE-5                     23.500000  0.000000  
CURVE-5                     23.667000  0.000000  
CURVE-5                     23.833000  0.000000  
CURVE-5                     24.000000  0.000000  
CURVE-5                     24.167000  0.000000  
CURVE-5                     24.333000  0.000000  
CURVE-5                     24.500000  0.000000  
CURVE-5                     24.667000  0.000000  
CURVE-5                     24.833000  0.000000  
CURVE-5                     25.000000  0.000000  
CURVE-5                     25.167000  0.000000  
CURVE-5                     25.333000  0.000000  
CURVE-5                     25.500000  0.000000  
CURVE-5                     25.667000  0.000000  
CURVE-5                     25.833000  0.000000  
CURVE-5                     26.000000  0.000000  
CURVE-5                     26.167000  0.000000  
CURVE-5                     26.333000  0.000000  
CURVE-5                     26.500000  0.000000  
CURVE-5                     26.667000  0.000000  
CURVE-5                     26.833000  0.000000  
CURVE-5                     27.000000  0.000000  
CURVE-5                     27.167000  0.000000  
CURVE-5                     27.333000  0.000000  
CURVE-5                     27.500000  0.000000  
CURVE-5                     27.667000  0.000000  
CURVE-5                     27.833000  0.000000  
CURVE-5                     28.000000  0.000000  
CURVE-5                     28.167000  0.000000  
CURVE-5                     28.333000  0.000000  
CURVE-5                     28.500000  0.000000  
CURVE-5                     28.667000  0.000000  
CURVE-5                     28.833000  0.000000  
CURVE-5                     29.000000  0.000000  
CURVE-5                     29.167000  0.000000  
CURVE-5                     29.333000  0.000000  
CURVE-5                     29.500000  0.000000  
CURVE-5                     29.667000  0.000000  
CURVE-5                     29.833000  0.000000  
CURVE-5                     30.000000  0.000000  
CURVE-5                     30.167000  0.000000  
CURVE-5                     30.333000  0.000000  
CURVE-5                     30.500000  0.000000  
CURVE-5                     30.667000  0.000000  
CURVE-5                     30.833000  0.000000  
CURVE-5                     31.000000  0.000000  
CURVE-5                     31.167000  0.000000  
CURVE-5                     31.333000  0.000000  
CURVE-5                     31.500000  0.000000  
CURVE-5                     31.667000  0.000000  
CURVE-5                     31.833000  0.000000  
CURVE-5                     32.000000  0.000000  
CURVE-5                     32.167000  0.000000  
CURVE-5                     32.333000  0.000000  
CURVE-5                     32.500000  0.000000  
CURVE-5                     32.667000  0.000000  
CURVE-5                     32.833000  0.000000  
CURVE-5                     33.000000  0.000000  
CURVE-5                     33.167000  0.000000  
CURVE-5                     33.333000  0.000000  
CURVE-5                     33.500000  0.000000  
CURVE-5                     33.667000  0.000000  
CURVE-5                     33.833000  0.000000  
CURVE-5                     34.000000  0.000000  
CURVE-5                     34.167000  0.000000  
CURVE-5                     34.333000  0.000000  
CURVE-5                     34.500000  0.000000  
CURVE-5                     34.667000  0.000000  
CURVE-5                     34.833000  0.000000  
CURVE-5                     35.000000  0.000000  
CURVE-5                     35.167000  0.000000  
CURVE-5                     35.333000  0.000000  
CURVE-5                     35.500000  0.000000  
CURVE-5                     35.667000  0.000000  
CURVE-5                     35.833000  0.000000  
CURVE-5                     36.000000  0.000000  
CURVE-5                     36.167000  0.000000  
CURVE-5                     36.333000  0.000000  
CURVE-5                     36.500000  0.000000  
CURVE-5                     36.667000  0.000000  
CURVE-5                     36.833000  0.000000  
CURVE-5                     37.000000  0.000000  
CURVE-5                     37.167000  0.000000  
CURVE-5                     37.333000  0.000000  
CURVE-5                     37.500000  0.000000  
CURVE-5                     37.667000  0.000000  
CURVE-5                     37.833000  0.000000  
CURVE-5                     38.000000  0.000000  
CURVE-5                     38.167000  0.000000  
CURVE-5                     38.333000  0.000000  
CURVE-5                     38.500000  0.000000  
CURVE-5                     38.667000  0.000000  
CURVE-5                     38.833000  0.000000  
CURVE-5                     39.000000  0.000000  
CURVE-5                     39.167000  0.000000  
CURVE-5                     39.333000  0.000000  
CURVE-5                     39.500000  0.000000  
CURVE-5                     39.667000  0.000000  
CURVE-5                     39.833000  0.000000  
CURVE-5                     40.000000  0.000000  
CURVE-5                     40.167000  0.000000  
CURVE-5                     40.333000  0.000000  
CURVE-5                     40.500000  0.000000  
CURVE-5                     40.667000  0.000000  
CURVE-5                     40.833000  0.000000  
CURVE-5                     41.000000  0.000000  
CURVE-5                     41.167000  0.000000  
CURVE-5                     41.333000  0.000000  
CURVE-5                     41.500000  0.000000  
CURVE-5                     41.667000  0.000000  
CURVE-5                     41.833000  0.000000  
CURVE-5                     42.000000  0.000000  
CURVE-5                     42.167000  0.000000  
CURVE-5                     42.333000  0.000000  
CURVE-5                     42.500000  0.000000  
CURVE-5                     42.667000  0.000000  
CURVE-5                     42.833000  0.000000  
CURVE-5                     43.000000  0.000000  
CURVE-5                     43.167000  0.000000  
CURVE-5                     43.333000  0.000000  
CURVE-5                     43.500000  0.000000  
CURVE-5                     43.667000  0.000000  
CURVE-5                     43.833000  0.000000  
CURVE-5                     44.000000  0.000000  
CURVE-5                     44.167000  0.000000  
CURVE-5                     44.333000  0.000000  
CURVE-5                     44.500000  0.000000  
CURVE-5                     44.667000  0.000000  
CURVE-5                     44.833000  0.000000  
CURVE-5                     45.000000  0.000000  
CURVE-5                     45.167000  0.000000  
CURVE-5                     45.333000  0.000000  
CURVE-5                     45.500000  0.000000  
CURVE-5                     45.667000  0.000000  
CURVE-5                     45.833000  0.000000  
CURVE-5                     46.000000  0.000000  
CURVE-5                     46.167000  0.000000  
CURVE-5                     46.333000  0.000000  
CURVE-5                     46.500000  0.000000  
CURVE-5                     46.667000  0.000000  
CURVE-5                     46.833000  0.000000  
CURVE-5                     47.000000  0.000000  
CURVE-5                     47.167000  0.000000  
CURVE-5                     47.333000  0.000000  
CURVE-5                     47.500000  0.000000  
CURVE-5                     47.667000  0.000000  
CURVE-5                     47.833000  0.000000  
CURVE-5                     48.000000  0.000000  
CURVE-5                     48.167000  0.000000  
CURVE-5                     48.333000  0.000000  
CURVE-5                     48.500000  0.000000  
CURVE-5                     48.667000  0.000000  
CURVE-5                     48.833000  0.000000  
CURVE-5                     49.000000  0.000000  
CURVE-5                     49.167000  0.000000  
CURVE-5                     49.333000  0.000000  
CURVE-5                     49.500000  0.000000  
CURVE-5                     49.667000  0.000000  
CURVE-5                     49.833000  0.000000  
CURVE-5                     50.000000  0.000000  
CURVE-5                     50.167000  0.000000  
CURVE-5                     50.333000  0.000000  
CURVE-5                     50.500000  0.000000  
CURVE-5                     50.667000  0.000000  
CURVE-5                     50.833000  0.000000  
CURVE-5                     51.000000  0.000000  
CURVE-5                     51.167000  0.000000  
CURVE-5                     51.333000  0.000000  
CURVE-5                     51.500000  0.000000  
CURVE-5                     51.667000  0.000000  
CURVE-5                     51.833000  0.000000  
CURVE-5                     52.000000  0.000000  
CURVE-5                     52.167000  0.000000  
CURVE-5                     52.333000  0.000000  
CURVE-5                     52.500000  0.000000  
CURVE-5                     52.667000  0.000000  
CURVE-5                     52.833000  0.000000  
CURVE-5                     53.000000  0.000000  
CURVE-5                     53.167000  0.000000  
CURVE-5                     53.333000  0.000000  
CURVE-5                     53.500000  0.000000  
CURVE-5                     53.667000  0.000000  
CURVE-5                     53.833000  0.000000  
CURVE-5                     54.000000  0.000000  
CURVE-5                     54.167000  0.000000  
CURVE-5                     54.333000  0.000000  
CURVE-5                     54.500000  0.000000  
CURVE-5                     54.667000  0.000000  
CURVE-5                     54.833000  0.000000  
CURVE-5                     55.000000  0.000000  
CURVE-5                     55.167000  0.000000  
CURVE-5                     55.333000  0.000000  
CURVE-5                     55.500000  0.000000  
CURVE-5                     55.667000  0.000000  
CURVE-5                     55.833000  0.000000  
CURVE-5                     56.000000  0.000000  
CURVE-5                     56.167000  0.000000  
CURVE-5                     56.333000  0.000000  
CURVE-5                     56.500000  0.000000  
CURVE-5                     56.667000  0.000000  
CURVE-5                     56.833000  0.000000  
CURVE-5                     57.000000  0.000000  
CURVE-5                     57.167000  0.000000  
CURVE-5                     57.333000  0.000000  
CURVE-5                     57.500000  0.000000  
CURVE-5                     57.667000  0.000000  
CURVE-5                     57.833000  0.000000  
CURVE-5                     58.000000  0.000000  
CURVE-5                     58.167000  0.000000  
CURVE-5                     58.333000  0.000000  
CURVE-5                     58.500000  0.000000  
CURVE-5                     58.667000  0.000000  
CURVE-5                     58.833000  0.000000  
CURVE-5                     59.000000  0.000000  
CURVE-5                     59.167000  0.000000  
CURVE-5                     59.333000  0.000000  
CURVE-5                     59.500000  0.000000  
CURVE-5                     59.667000  0.000000  
CURVE-5                     59.833000  0.000000  
CURVE-5                     60.000000  0.000000  
CURVE-5                     60.167000  0.020000  
CURVE-5                     60.333000  0.040000  
CURVE-5                     60.500000  0.080000  
CURVE-5                     60.667000  0.100000  
CURVE-5                     60.833000  0.120000  
CURVE-5                     61.000000  0.140000  
CURVE-5                     61.167000  0.160000  
CURVE-5                     61.333000  0.180000  
CURVE-5                     61.500000  0.200000  
CURVE-5                     61.667000  0.220000  
CURVE-5                     61.833000  0.240000  
CURVE-5                     62.000000  0.260000  
CURVE-5                     62.167000  0.280000  
CURVE-5                     62.333000  0.300000  
CURVE-5                     62.500000  0.320000  
CURVE-5                     62.667000  0.340000  
CURVE-5                     62.833000  0.360000  
CURVE-5                     63.000000  0.380000  
CURVE-5                     63.167000  0.400000  
CURVE-5                     63.333000  0.420000  
CURVE-5                     63.500000  0.440000  
CURVE-5                     63.667000  0.460000  
CURVE-5                     63.833000  0.480000  
CURVE-5                     64.000000  0.500000  
CURVE-5                     64.167000  0.520000  
CURVE-5                     64.333000  0.540000  
CURVE-5                     64.500000  0.560000  
CURVE-5                     64.667000  0.580000  
CURVE-5                     64.833000  0.600000  
CURVE-5                     65.000000  0.620000  
CURVE-5                     65.167000  0.640000  
CURVE-5                     65.333000  0.660000  
CURVE-5                     65.500000  0.680000  
CURVE-5                     65.667000  0.690000  
CURVE-5                     65.833000  0.690000  
CURVE-5                     66.000000  0.700000  
CURVE-5                     66.167000  0.740000  
CURVE-5                     66.333000  0.780000  
CURVE-5                     66.500000  0.820000  
CURVE-5                     66.667000  0.860000  
CURVE-5                     66.833000  0.900000  
CURVE-5                     67.000000  0.940000  
CURVE-5                     67.167000  0.980000  
CURVE-5                     67.333000  1.020000  
CURVE-5                     67.500000  1.060000  
CURVE-5                     67.667000  1.100000  
CURVE-5                     67.833000  1.140000  
CURVE-5                     68.000000  1.180000  
CURVE-5                     68.167000  1.220000  
CURVE-5                     68.333000  1.260000  
CURVE-5                     68.500000  1.300000  
CURVE-5                     68.667000  1.340000  
CURVE-5                     68.833000  1.380000  
CURVE-5                     69.000000  1.370000  
CURVE-5                     69.167000  1.365000  
CURVE-5                     69.333000  1.360000  
CURVE-5                     69.500000  1.355000  
CURVE-5                     69.667000  1.350000  
CURVE-5                     69.833000  1.345000  
CURVE-5                     70.000000  1.340000  
CURVE-5                     70.167000  1.335000  
CURVE-5                     70.333000  1.330000  
CURVE-5                     70.500000  1.325000  
CURVE-5                     70.667000  1.320000  
CURVE-5                     70.833000  1.315000  
CURVE-5                     71.000000  1.310000  
CURVE-5                     71.167000  1.305000  
CURVE-5                     71.333000  1.300000  
CURVE-5                     71.500000  1.295000  
CURVE-5                     71.667000  1.290000  
CURVE-5                     71.833000  1.285000  
CURVE-5                     72.000000  1.280000  
CURVE-5                     72.167000  1.275000  
CURVE-5                     72.333000  1.270000  